
     RDKit          3D

 46 49  0  0  0  0  0  0  0  0999 V2000
   -1.2009    3.7126    0.9226 C   0  0  0  0  0  0  0  0  0  0  0  0
   -1.3709    2.2334    0.6037 C   0  0  0  0  0  0  0  0  0  0  0  0
   -0.1183    1.4164    0.9301 C   0  0  2  0  0  0  0  0  0  0  0  0
    1.1110    1.7924    0.0961 C   0  0  0  0  0  0  0  0  0  0  0  0
    1.9576    0.6099    0.1211 N   0  0  0  0  0  0  0  0  0  0  0  0
    1.2588   -0.5259    0.7119 C   0  0  0  0  0  0  0  0  0  0  0  0
   -0.2251   -0.1140    0.7445 C   0  0  2  0  0  0  0  0  0  0  0  0
   -0.9620   -0.5386   -0.4943 C   0  0  0  0  0  0  0  0  0  0  0  0
   -0.5512   -0.6075   -1.8199 C   0  0  0  0  0  0  0  0  0  0  0  0
   -1.5402   -1.0774   -2.6466 N   0  0  0  0  0  0  0  0  0  0  0  0
   -2.5611   -1.2840   -1.8461 C   0  0  0  0  0  0  0  0  0  0  0  0
   -2.2716   -0.9666   -0.5346 N   0  0  0  0  0  0  0  0  0  0  0  0
   -3.2986   -1.1291    0.4139 C   0  0  0  0  0  0  0  0  0  0  0  0
   -4.5008   -1.6068   -0.0716 C   0  0  0  0  0  0  0  0  0  0  0  0
   -5.3579   -1.6901    0.9895 N   0  0  0  0  0  0  0  0  0  0  0  0
   -4.7099   -1.2658    2.1287 C   0  0  0  0  0  0  0  0  0  0  0  0
   -3.4165   -0.9062    1.7942 C   0  0  0  0  0  0  0  0  0  0  0  0
   -4.8436   -1.9458   -1.3454 N   0  0  0  0  0  0  0  0  0  0  0  0
   -3.8742   -1.7784   -2.2132 C   0  0  0  0  0  0  0  0  0  0  0  0
    3.2851    0.7028   -0.2079 C   0  0  0  0  0  0  0  0  0  0  0  0
    3.8105    1.7492   -0.5743 O   0  0  0  0  0  0  0  0  0  0  0  0
    3.9947   -0.4597   -0.0736 N   0  0  0  0  0  0  0  0  0  0  0  0
    5.4106   -0.4800   -0.4496 C   0  0  0  0  0  0  0  0  0  0  0  0
    6.1491   -1.7543   -0.0575 C   0  0  0  0  0  0  0  0  0  0  0  0
    5.5310   -2.8426   -0.5759 F   0  0  0  0  0  0  0  0  0  0  0  0
    7.4185   -1.7465   -0.5193 F   0  0  0  0  0  0  0  0  0  0  0  0
    6.1978   -1.9129    1.2833 F   0  0  0  0  0  0  0  0  0  0  0  0
   -0.9400    3.8600    1.9753 H   0  0  0  0  0  0  0  0  0  0  0  0
   -0.4195    4.1665    0.3057 H   0  0  0  0  0  0  0  0  0  0  0  0
   -2.1350    4.2488    0.7271 H   0  0  0  0  0  0  0  0  0  0  0  0
   -2.2161    1.8497    1.1856 H   0  0  0  0  0  0  0  0  0  0  0  0
   -1.6362    2.1366   -0.4551 H   0  0  0  0  0  0  0  0  0  0  0  0
    0.1357    1.5901    1.9869 H   0  0  0  0  0  0  0  0  0  0  0  0
    0.8607    2.0052   -0.9491 H   0  0  0  0  0  0  0  0  0  0  0  0
    1.6426    2.6553    0.5107 H   0  0  0  0  0  0  0  0  0  0  0  0
    1.6506   -0.6501    1.7285 H   0  0  0  0  0  0  0  0  0  0  0  0
    1.4493   -1.4457    0.1509 H   0  0  0  0  0  0  0  0  0  0  0  0
   -0.6822   -0.5826    1.6193 H   0  0  0  0  0  0  0  0  0  0  0  0
    0.4204   -0.3436   -2.2222 H   0  0  0  0  0  0  0  0  0  0  0  0
   -6.3147   -2.0096    0.9263 H   0  0  0  0  0  0  0  0  0  0  0  0
   -5.2299   -1.2533    3.0777 H   0  0  0  0  0  0  0  0  0  0  0  0
   -2.6840   -0.5258    2.4915 H   0  0  0  0  0  0  0  0  0  0  0  0
   -4.0576   -2.0229   -3.2719 H   0  0  0  0  0  0  0  0  0  0  0  0
    3.4746   -1.2993   -0.2822 H   0  0  0  0  0  0  0  0  0  0  0  0
    5.9036    0.3854    0.0074 H   0  0  0  0  0  0  0  0  0  0  0  0
    5.4562   -0.3494   -1.5367 H   0  0  0  0  0  0  0  0  0  0  0  0
  1  2  1  0
  2  3  1  0
  3  4  1  0
  4  5  1  0
  5  6  1  0
  6  7  1  0
  7  8  1  0
  8  9  2  0
  9 10  1  0
 10 11  2  0
 11 12  1  0
 12 13  1  0
 13 14  2  0
 14 15  1  0
 15 16  1  0
 16 17  2  0
 14 18  1  0
 18 19  2  0
  5 20  1  0
 20 21  2  0
 20 22  1  0
 22 23  1  0
 23 24  1  0
 24 25  1  0
 24 26  1  0
 24 27  1  0
  7  3  1  0
 12  8  1  0
 19 11  1  0
 17 13  1  0
  1 28  1  0
  1 29  1  0
  1 30  1  0
  2 31  1  0
  2 32  1  0
  3 33  1  1
  4 34  1  0
  4 35  1  0
  6 36  1  0
  6 37  1  0
  7 38  1  1
  9 39  1  0
 15 40  1  0
 16 41  1  0
 17 42  1  0
 19 43  1  0
 22 44  1  0
 23 45  1  0
 23 46  1  0
M  END
>  <ScrubInfo>  (1) 
{"isomerGroup": 0, "isomerId": 0, "confId": 0, "nr_conformers:": 1, "nr_isomers:": 1}

$$$$
